@<TRIPOS>MOLECULE
*****
 20 20 0 0 0
SMALL
GASTEIGER

@<TRIPOS>ATOM
      1 CD2        -0.4450   -0.9458    0.4570 C.ar    1  HIS1        0.0485
      2 CG          0.8840   -0.7311    0.1523 C.ar    1  HIS1        0.0373
      3 ND1         0.9775    0.6319    0.0035 N.ar    1  HIS1       -0.3481
      4 CE1        -0.2976    1.1247    0.0293 C.ar    1  HIS1        0.0935
      5 NE2        -1.1790    0.1760    0.2394 N.ar    1  HIS1       -0.2440
      6 CB          2.0310   -1.6746    0.0066 C.3     1  HIS1        0.0146
      7 CA          1.5699   -3.1414   -0.0781 C.3     1  HIS1        0.1086
      8 C           0.8714   -3.5577   -1.4076 C.2     1  HIS1        0.3221
      9 O           1.2763   -4.5179   -2.0657 O.2     1  HIS1       -0.2492
     10 OXT        -0.2301   -2.9093   -1.8206 O.3     1  HIS1       -0.4795
     11 N           2.7721   -4.0145    0.0905 N.3     1  HIS1       -0.3181
     12 HD2        -0.9268   -1.8877    0.6961 H       1  HIS1        0.0848
     13 HD1         1.8204    1.1818   -0.1067 H       1  HIS1        0.1665
     14 HE1        -0.5268    2.1743   -0.0922 H       1  HIS1        0.1027
     15 HB1         2.6889   -1.5370    0.8785 H       1  HIS1        0.0348
     16 HB2         2.6287   -1.4189   -0.8786 H       1  HIS1        0.0348
     17 HA          0.9074   -3.3849    0.7611 H       1  HIS1        0.0578
     18 HXT        -0.5222   -2.0774   -1.4075 H       1  HIS1        0.2951
     19 H1          3.3257   -3.9391   -0.7695 H       1  HIS1        0.1190
     20 H2          2.4381   -4.9842    0.0397 H       1  HIS1        0.1190
@<TRIPOS>BOND
     1     1     2   ar
     2     2     3   ar
     3     3     4   ar
     4     4     5   ar
     5     1     5   ar
     6     2     6    1
     7     6     7    1
     8     7     8    1
     9     8     9    2
    10     8    10    1
    11     7    11    1
    12     1    12    1
    13     3    13    1
    14     4    14    1
    15     6    15    1
    16     6    16    1
    17     7    17    1
    18    10    18    1
    19    11    19    1
    20    11    20    1
