@<TRIPOS>MOLECULE
*****
 18 18 0 0 0
SMALL
GASTEIGER

@<TRIPOS>ATOM
      1 N           0.8757    0.0276    0.0354 N.3     1  HIS1       -0.3224
      2 CA          2.3817    0.0586   -0.0294 C.3     1  HIS1        0.0473
      3 CB          2.9048   -0.1674   -1.4601 C.3     1  HIS1       -0.0262
      4 CG          2.4447   -1.4543   -2.0752 C.ar    1  HIS1       -0.1384
      5 CD2         1.5146   -1.6807   -3.0801 C.ar    1  HIS1        0.0072
      6 NE2         1.4168   -3.0136   -3.2923 N.ar    1  HIS1       -0.2877
      7 CE1         2.2711   -3.5993   -2.4279 C.ar    1  HIS1       -0.0809
      8 ND1         2.9141   -2.6702   -1.6963 N.ar    1  HIS1       -0.6527
      9 C           2.9504    1.4474    0.4694 C.2     1  HIS1        0.0587
     10 O           2.1046    2.3530    0.7431 O.co2   1  HIS1       -0.5482
     11 OXT         4.2174    1.5361    0.5307 O.co2   1  HIS1       -0.5482
     12 H1          0.5956   -0.8258   -0.4502 H       1  HIS1        0.1188
     13 H2          0.5710    0.8225   -0.5251 H       1  HIS1        0.1188
     14 HA          2.7549   -0.7241    0.6401 H       1  HIS1        0.0522
     15 HB1         4.0017   -0.1591   -1.4833 H       1  HIS1        0.0315
     16 HB2         2.5787    0.6552   -2.1123 H       1  HIS1        0.0315
     17 HD2         0.9363   -0.9489   -3.6234 H       1  HIS1        0.0813
     18 HE1         2.4291   -4.6649   -2.3344 H       1  HIS1        0.0574
@<TRIPOS>UNITY_ATOM_ATTR
8 1
charge -1
11 1
charge -1
@<TRIPOS>BOND
     1     1     2    1
     2     2     3    1
     3     3     4    1
     4     4     5   ar
     5     5     6   ar
     6     6     7   ar
     7     7     8   ar
     8     4     8   ar
     9     2     9    1
    10     9    10   ar
    11     9    11   ar
    12     1    12    1
    13     1    13    1
    14     2    14    1
    15     3    15    1
    16     3    16    1
    17     5    17    1
    18     7    18    1
