@<TRIPOS>MOLECULE
*****
 20 20 0 0 0
SMALL
GASTEIGER

@<TRIPOS>ATOM
      1 N           0.9059    0.0802    0.1092 N.4     1  HIS1        0.2252
      2 CA          2.4234   -0.0227    0.0651 C.3     1  HIS1        0.0215
      3 CB          2.8524   -0.9805   -1.0445 C.3     1  HIS1        0.0374
      4 CG          2.4301   -2.4193   -0.8669 C.ar    1  HIS1        0.0411
      5 CD2         3.1362   -3.5691   -1.1724 C.ar    1  HIS1        0.0486
      6 NE2         2.4340   -4.6969   -0.8371 N.ar    1  HIS1       -0.2440
      7 CE1         1.2991   -4.2667   -0.3534 C.ar    1  HIS1        0.0935
      8 ND1         1.2300   -2.9062   -0.4037 N.ar    1  HIS1       -0.3480
      9 C           3.0007    1.4029   -0.1842 C.2     1  HIS1        0.0897
     10 O           2.0531    2.2438   -0.2847 O.co2   1  HIS1       -0.5442
     11 OXT         4.2460    1.5252   -0.2134 O.co2   1  HIS1       -0.5442
     12 H1          0.3945   -0.7258    0.4266 H       1  HIS1        0.2001
     13 H2          0.6072    0.4593   -0.8004 H       1  HIS1        0.2001
     14 H3          0.7209    0.8825    0.7330 H       1  HIS1        0.2001
     15 HA          2.7343   -0.3755    1.0536 H       1  HIS1        0.0918
     16 HB1         3.9517   -0.9697   -1.1004 H       1  HIS1        0.0387
     17 HB2         2.5104   -0.6182   -2.0230 H       1  HIS1        0.0387
     18 HD2         4.1231   -3.6378   -1.6122 H       1  HIS1        0.0848
     19 HE1         0.4856   -4.8686    0.0307 H       1  HIS1        0.1027
     20 HD1         0.3934   -2.4215   -0.1377 H       1  HIS1        0.1665
@<TRIPOS>UNITY_ATOM_ATTR
1 1
charge 1
11 1
charge -1
@<TRIPOS>BOND
     1     1     2    1
     2     2     3    1
     3     3     4    1
     4     4     5   ar
     5     5     6   ar
     6     6     7   ar
     7     7     8   ar
     8     4     8   ar
     9     2     9    1
    10     9    10   ar
    11     9    11   ar
    12     1    12    1
    13     1    13    1
    14     1    14    1
    15     2    15    1
    16     3    16    1
    17     3    17    1
    18     5    18    1
    19     7    19    1
    20     8    20    1
