@<TRIPOS>MOLECULE
*****
 20 20 0 0 0
SMALL
GASTEIGER

@<TRIPOS>ATOM
      1 N           0.9927    0.0351    0.0609 N.4     1  HIS1        0.2252
      2 CA          2.5211    0.0553    0.0535 C.3     1  HIS1        0.0215
      3 CB          3.0122    1.3825    0.6354 C.3     1  HIS1        0.0374
      4 CG          2.5598    2.5657   -0.1736 C.ar    1  HIS1        0.0411
      5 CD2         1.8322    2.6879   -1.3423 C.ar    1  HIS1        0.0486
      6 NE2         1.6744    3.9916   -1.6982 N.ar    1  HIS1       -0.2440
      7 CE1         2.3627    4.6734   -0.8151 C.ar    1  HIS1        0.0935
      8 ND1         2.9019    3.8607    0.1422 N.ar    1  HIS1       -0.3480
      9 C           3.0775   -1.1377    0.8702 C.2     1  HIS1        0.0897
     10 O           2.1298   -1.8472    1.3260 O.co2   1  HIS1       -0.5442
     11 OXT         4.3235   -1.2371    0.9555 O.co2   1  HIS1       -0.5442
     12 H1          0.5217    0.8049   -0.4091 H       1  HIS1        0.2001
     13 H2          0.7141   -0.0249    1.0494 H       1  HIS1        0.2001
     14 H3          0.7152   -0.8843   -0.3056 H       1  HIS1        0.2001
     15 HA          2.8216   -0.0589   -0.9941 H       1  HIS1        0.0918
     16 HB1         4.1090    1.3925    0.6829 H       1  HIS1        0.0387
     17 HB2         2.6597    1.4882    1.6714 H       1  HIS1        0.0387
     18 HD2         1.4047    1.9087   -1.9596 H       1  HIS1        0.0848
     19 HE1         2.5095    5.7446   -0.8275 H       1  HIS1        0.1027
     20 HD1         3.4804    4.1664    0.9145 H       1  HIS1        0.1665
@<TRIPOS>UNITY_ATOM_ATTR
1 1
charge 1
11 1
charge -1
@<TRIPOS>BOND
     1     1     2    1
     2     2     3    1
     3     3     4    1
     4     4     5   ar
     5     5     6   ar
     6     6     7   ar
     7     7     8   ar
     8     4     8   ar
     9     2     9    1
    10     9    10   ar
    11     9    11   ar
    12     1    12    1
    13     1    13    1
    14     1    14    1
    15     2    15    1
    16     3    16    1
    17     3    17    1
    18     5    18    1
    19     7    19    1
    20     8    20    1
