@<TRIPOS>MOLECULE
*****
 19 19 0 0 0
SMALL
GASTEIGER

@<TRIPOS>ATOM
      1 N           0.9758    0.0527    0.1453 N.3     1  HIS1       -0.3223
      2 CA          2.4738    0.0182    0.1025 C.3     1  HIS1        0.0503
      3 CB          3.0058   -1.4130   -0.0636 C.3     1  HIS1        0.0095
      4 CG          2.6150   -2.3601    1.0368 C.ar    1  HIS1        0.0371
      5 CD2         2.7293   -3.7304    1.1211 C.ar    1  HIS1        0.0485
      6 NE2         2.2841   -4.1923    2.3338 N.ar    1  HIS1       -0.2440
      7 CE1         1.8995   -3.1197    2.9867 C.ar    1  HIS1        0.0935
      8 ND1         2.0670   -1.9889    2.2409 N.ar    1  HIS1       -0.3481
      9 C           3.0475    0.8630   -1.1036 C.2     1  HIS1        0.0588
     10 O           2.2006    1.3588   -1.8977 O.co2   1  HIS1       -0.5482
     11 OXT         4.3155    0.9268   -1.1447 O.co2   1  HIS1       -0.5482
     12 H1          0.6148   -0.7080    0.7045 H       1  HIS1        0.1188
     13 H2          0.6899   -0.1460   -0.8211 H       1  HIS1        0.1188
     14 HA          2.8518    0.4636    1.0293 H       1  HIS1        0.0523
     15 HB1         4.1024   -1.4102   -0.1129 H       1  HIS1        0.0347
     16 HB2         2.6603   -1.8291   -1.0207 H       1  HIS1        0.0347
     17 HD2         3.1229   -4.3985    0.3667 H       1  HIS1        0.0848
     18 HE1         1.4970   -3.0970    3.9897 H       1  HIS1        0.1027
     19 HD1         1.8117   -1.0475    2.5137 H       1  HIS1        0.1665
@<TRIPOS>UNITY_ATOM_ATTR
11 1
charge -1
@<TRIPOS>BOND
     1     1     2    1
     2     2     3    1
     3     3     4    1
     4     4     5   ar
     5     5     6   ar
     6     6     7   ar
     7     7     8   ar
     8     4     8   ar
     9     2     9    1
    10     9    10   ar
    11     9    11   ar
    12     1    12    1
    13     1    13    1
    14     2    14    1
    15     3    15    1
    16     3    16    1
    17     5    17    1
    18     7    18    1
    19     8    19    1
