@<TRIPOS>MOLECULE
*****
 19 19 0 0 0
SMALL
GASTEIGER

@<TRIPOS>ATOM
      1 N           0.9171   -0.0795   -0.0119 N.4     1  HIS1        0.2251
      2 CA          2.4455   -0.0966   -0.0573 C.3     1  HIS1        0.0184
      3 CB          2.9496   -1.3150    0.7034 C.3     1  HIS1        0.0021
      4 CG          2.4734   -1.2800    2.1134 C.ar    1  HIS1       -0.1346
      5 CD2         2.1901   -0.2031    2.9410 C.ar    1  HIS1        0.0074
      6 NE2         1.6275   -0.6721    4.0660 N.ar    1  HIS1       -0.2877
      7 CE1         1.6912   -2.0172    4.0047 C.ar    1  HIS1       -0.0809
      8 ND1         2.0995   -2.3962    2.7747 N.ar    1  HIS1       -0.6526
      9 C           2.9771   -0.0733   -1.5096 C.2     1  HIS1        0.0896
     10 O           2.0286   -0.0145   -2.3525 O.co2   1  HIS1       -0.5442
     11 OXT         4.2229   -0.0428   -1.6664 O.co2   1  HIS1       -0.5442
     12 H1          0.5389   -0.1424    0.9417 H       1  HIS1        0.2001
     13 H2          0.6112   -0.8894   -0.5628 H       1  HIS1        0.2001
     14 H3          0.6014    0.7381   -0.5401 H       1  HIS1        0.2001
     15 HA          2.7595    0.8386    0.4204 H       1  HIS1        0.0917
     16 HB1         4.0436   -1.3616    0.7069 H       1  HIS1        0.0355
     17 HB2         2.5883   -2.2317    0.2158 H       1  HIS1        0.0355
     18 HD2         2.2975    0.8512    2.7350 H       1  HIS1        0.0813
     19 HE1         1.4323   -2.6862    4.8161 H       1  HIS1        0.0574
@<TRIPOS>UNITY_ATOM_ATTR
1 1
charge 1
8 1
charge -1
11 1
charge -1
@<TRIPOS>BOND
     1     1     2    1
     2     2     3    1
     3     3     4    1
     4     4     5   ar
     5     5     6   ar
     6     6     7   ar
     7     7     8   ar
     8     4     8   ar
     9     2     9    1
    10     9    10   ar
    11     9    11   ar
    12     1    12    1
    13     1    13    1
    14     1    14    1
    15     2    15    1
    16     3    16    1
    17     3    17    1
    18     5    18    1
    19     7    19    1
