@<TRIPOS>MOLECULE
*****
 14 14 0 0 0
SMALL
GASTEIGER

@<TRIPOS>ATOM
      1 O           0.9717   -0.0650    0.0679 O.co2   1  UNL1       -0.5446
      2 C           2.2352   -0.1353   -0.0051 C.2     1  UNL1        0.0717
      3 O           2.9321   -1.2012   -0.0364 O.co2   1  UNL1       -0.5446
      4 C           2.9969    1.1662   -0.0348 C.ar    1  UNL1       -0.0027
      5 C           4.1448    1.3083   -0.8280 C.ar    1  UNL1       -0.0529
      6 C           4.9204    2.4669   -0.7547 C.ar    1  UNL1       -0.0611
      7 C           4.5201    3.5231    0.0634 C.ar    1  UNL1       -0.0617
      8 C           3.3586    3.4112    0.8271 C.ar    1  UNL1       -0.0611
      9 C           2.6019    2.2386    0.7789 C.ar    1  UNL1       -0.0529
     10 H           4.4309    0.4937   -1.4909 H       1  UNL1        0.0624
     11 H           5.8440    2.5313   -1.3208 H       1  UNL1        0.0618
     12 H           5.1142    4.4302    0.1074 H       1  UNL1        0.0618
     13 H           3.0493    4.2229    1.4776 H       1  UNL1        0.0618
     14 H           1.7075    2.1324    1.3894 H       1  UNL1        0.0624
@<TRIPOS>UNITY_ATOM_ATTR
3 1
charge -1
@<TRIPOS>BOND
     1     1     2   ar
     2     2     3   ar
     3     2     4    1
     4     4     5   ar
     5     5     6   ar
     6     6     7   ar
     7     7     8   ar
     8     8     9   ar
     9     4     9   ar
    10     5    10    1
    11     6    11    1
    12     7    12    1
    13     8    13    1
    14     9    14    1
